<?xml version="1.0" encoding="UTF-8"?>
<configuration>
    <input>
        <net-file value="AddisAbaba.net.xml"/>
        <route-files value="simple_test.xml"/>
    </input>
    <time>
        <begin value="0"/>
        <end value="100"/>
    </time>
    <traci_server>
        <remote-port value="8813"/>
    </traci_server>
    <gui_only>
        <start value="true"/>
    </gui_only>
</configuration>