<?xml version="1.0" encoding="UTF-8"?>
<configuration>
    <input>
        <!-- Network file -->
        <net-file value="AddisAbaba.net.xml"/>
        
        <!-- Trip file with multiple vehicle types -->
        <route-files value="enhanced_trips.xml"/>
        
        <!-- Vehicle type definitions -->
        <additional-files value="vehicle_types.xml"/>
    </input>

    <time>
        <!-- Simulation duration (24 hours in seconds) -->
        <begin value="0"/>
        <end value="86400"/>
        
        <!-- Time step in seconds -->
        <step-length value="1.0"/>
    </time>

    <processing>
        <!-- Number of threads for parallel processing -->
        <threads value="4"/>
        
        <!-- Collision detection -->
        <collision.action value="warn"/>
        
        <!-- Time to collision threshold -->
        <collision.mingap-factor value="0.5"/>
        
        <!-- Teleport settings -->
        <time-to-teleport value="300"/>
        <time-to-teleport.highways value="60"/>
        
        <!-- Departure settings -->
        <max-depart-delay value="900"/>
    </processing>



    <report>
        <!-- Verbose output -->
        <verbose value="true"/>
        
        <!-- Print statistics -->
        <print-options value="false"/>
        
        <!-- No step logs (for performance) -->
        <no-step-log value="true"/>
    </report>

    <gui_only>
        <!-- GUI settings (only used if running with GUI) -->
        <gui-settings-file value="gui_settings.xml"/>
        
        <!-- Start time for GUI -->
        <start value="0"/>
        
        <!-- Delay between steps in GUI (ms) -->
        <delay value="50"/>
    </gui_only>

    <random_number>
        <!-- Random seed for reproducibility -->
        <seed value="42"/>
    </random_number>



    <output>
        <!-- Output files -->
        <summary value="summary.xml"/>
        <tripinfo value="tripinfo.xml"/>
        <fcd-output value="fcd.xml"/>
    </output>
</configuration>