<?xml version="1.0" encoding="UTF-8"?>
<configuration>
    <input>
        <net-file value="/Volumes/PortableSSD/Senior Project/AddisAbabaSumo/AddisAbaba.net.xml"/>
        <route-files value="congested_test_trips.xml"/>
        <additional-files value="vehicle_types.xml"/>
    </input>
    <time>
        <begin value="0"/>
        <end value="1800"/>
        <step-length value="1.0"/>
    </time>
    <processing>
        <threads value="4"/>
        <collision.action value="warn"/>
        <time-to-teleport value="30"/>
        <max-depart-delay value="60"/>
    </processing>
    <report>
        <verbose value="true"/>
        <no-step-log value="true"/>
    </report>
    <gui_only>
        <start value="0"/>
        <delay value="20"/>
    </gui_only>
    <random_number>
        <seed value="42"/>
    </random_number>
    <output>
        <summary value="congested_summary.xml"/>
        <tripinfo value="congested_tripinfo.xml"/>
        <fcd-output value="congested_fcd.xml"/>
    </output>
</configuration> 