<?xml version="1.0" encoding="UTF-8"?>
<configuration>
    <input>
        <net-file value="/Volumes/PortableSSD/Senior Project/AddisAbabaSumo/AddisAbaba.net.xml"/>
        <additional-files value="/Volumes/PortableSSD/Senior Project/AddisAbabaSumo/dev/vehicle_types.xml"/>
        <route-files value="/Volumes/PortableSSD/Senior Project/AddisAbabaSumo/dev/longer_routes.xml"/>
    </input>
    
    <time>
        <begin value="0"/>
        <end value="1800"/>
    </time>
    
    <processing>
        <ignore-route-errors value="false"/>
        <time-to-teleport value="60"/>
        <max-depart-delay value="120"/>
    </processing>
    
    <report>
        <tripinfo-output value="longer_routes_tripinfo.xml"/>
        <summary-output value="longer_routes_summary.xml"/>
        <fcd-output value="longer_routes_fcd.xml"/>
    </report>
    
    <gui_only>
        <gui-settings-file value=""/>
        <quit-on-end value="false"/>
        <delay value="50"/>
        <no-step-log value="false"/>
    </gui_only>
</configuration> 